Version 4
SHEET 1 880 680
WIRE 176 -16 48 -16
WIRE 176 32 176 -16
WIRE 368 112 176 112
WIRE 16 192 -48 192
WIRE 48 192 16 192
FLAG 176 208 0
FLAG 368 192 0
FLAG 368 112 Vout
FLAG -48 272 0
FLAG 48 64 0
FLAG 16 192 Vc
SYMBOL nmos 128 112 R0
SYMATTR InstName M1
SYMATTR Value Si1555DL_N
SYMBOL res 160 16 R0
SYMATTR InstName R1
SYMATTR Value 50
SYMBOL res 144 176 R90
WINDOW 0 0 56 VBottom 2
WINDOW 3 32 56 VTop 2
SYMATTR InstName R2
SYMATTR Value 75
SYMBOL res 352 96 R0
SYMATTR InstName R3
SYMATTR Value 1000000
SYMBOL voltage -48 176 R0
WINDOW 123 0 0 Left 2
WINDOW 39 0 0 Left 2
SYMATTR InstName V1
SYMATTR Value PULSE(0 3.3 10nSEC 3nSEC 3nSEC 20nSEC 60nSEC 4)
SYMBOL voltage 48 -32 R0
SYMATTR InstName V2
SYMATTR Value 5.5
TEXT -80 296 Left 2 !.tran 0 200nSEC 0NSEC 1nSEC
